! easymecp: max_steps=40
! easymecp: TDE=5.d-5
! easymecp: TDXMax=4.d-3
! easymecp: TDXRMS=2.5d-3
! easymecp: TGMax=7.d-4
! easymecp: TGRMS=5.d-4
%mem=6GB
%nproc=4
%chk=singlet.chk
#n B3LYP/6-31G** force guess(read)

First State

1 1
   6    0.00000000    1.29661300    0.00000000
   6    1.21062169    0.76163325    0.00000000
   6    1.18566623   -0.72107063    0.00000000
   6    0.00000000   -1.38295663    0.00000000
   6   -1.18566623   -0.72107063    0.00000000
   6   -1.21062169    0.76163325    0.00000000
   1    2.15466728    1.23943382    0.00000000
   1    2.15409407   -1.23670445    0.00000000
   1    0.00000000   -2.48386533    0.00000000
   1   -2.15409407   -1.23670445    0.00000000
   1   -2.15466728    1.23943382    0.00000000



