! easymecp: max_steps=40
! easymecp: TDE=5.d-5
! easymecp: TDXMax=4.d-3
! easymecp: TDXRMS=2.5d-3
! easymecp: TGMax=7.d-4
! easymecp: TGRMS=5.d-4
%mem=6GB
%nproc=4
%chk=triplet.chk
#n B3LYP/6-31G** force guess(read)

Second State

1 3
   6    0.00000000    1.29390795    0.00000000
   6    1.26894294    0.69491769    0.00000000
   6    1.25319073   -0.68704191    0.00000000
   6    0.00000000   -1.37652121    0.00000000
   6   -1.25319073   -0.68704191    0.00000000
   6   -1.26894294    0.69491769    0.00000000
   1    2.18616903    1.27569862    0.00000000
   1    2.18025862   -1.25246238    0.00000000
   1    0.00000000   -2.46323577    0.00000000
   1   -2.18025862   -1.25246238    0.00000000
   1   -2.18616903    1.27569862    0.00000000



