! easymecp: max_steps=40
! easymecp: TDE=5.d-5
! easymecp: TDXMax=4.d-3
! easymecp: TDXRMS=2.5d-3
! easymecp: TGMax=7.d-4
! easymecp: TGRMS=5.d-4
%mem=6GB
%nproc=4
%chk=singlet.chk
#n B3LYP/6-31G** force guess(read)

First State

1 1
   6    0.00000000    1.30325976    0.00000000
   6    1.26459219    0.69791270    0.00000000
   6    1.23681799   -0.67908417    0.00000000
   6    0.00000000   -1.38864101    0.00000000
   6   -1.23681799   -0.67908417    0.00000000
   6   -1.26459219    0.69791270    0.00000000
   1    2.18541158    1.26326453    0.00000000
   1    2.17323087   -1.24307619    0.00000000
   1    0.00000000   -2.47627749    0.00000000
   1   -2.17323087   -1.24307619    0.00000000
   1   -2.18541158    1.26326453    0.00000000



