! easymecp: max_steps=40
! easymecp: TDE=5.d-5
! easymecp: TDXMax=4.d-3
! easymecp: TDXRMS=2.5d-3
! easymecp: TGMax=7.d-4
! easymecp: TGRMS=5.d-4
%mem=6GB
%nproc=4
%chk=singlet.chk
#n B3LYP/6-31G** force guess(read)

First State

1 1
   6    0.00000000    1.30162652    0.00000000
   6    1.26563705    0.69808340    0.00000000
   6    1.24678039   -0.68433607    0.00000000
   6    0.00000000   -1.38439439    0.00000000
   6   -1.24678039   -0.68433607    0.00000000
   6   -1.26563705    0.69808340    0.00000000
   1    2.18650719    1.26459082    0.00000000
   1    2.17341058   -1.24248004    0.00000000
   1    0.00000000   -2.47257335    0.00000000
   1   -2.17341058   -1.24248004    0.00000000
   1   -2.18650719    1.26459082    0.00000000



