! easymecp: max_steps=40
! easymecp: TDE=5.d-5
! easymecp: TDXMax=4.d-3
! easymecp: TDXRMS=2.5d-3
! easymecp: TGMax=7.d-4
! easymecp: TGRMS=5.d-4
%mem=6GB
%nproc=4
%chk=singlet.chk
#n B3LYP/6-31G** force guess(read)

First State

1 1
   6    0.00000000    1.30012010    0.00000000
   6    1.26592208    0.69613266    0.00000000
   6    1.24899944   -0.68626285    0.00000000
   6    0.00000000   -1.38081473    0.00000000
   6   -1.24899944   -0.68626285    0.00000000
   6   -1.26592208    0.69613266    0.00000000
   1    2.18883471    1.26757536    0.00000000
   1    2.17751256   -1.24466926    0.00000000
   1    0.00000000   -2.46848220    0.00000000
   1   -2.17751256   -1.24466926    0.00000000
   1   -2.18883471    1.26757536    0.00000000



