! easymecp: max_steps=40
! easymecp: TDE=5.d-5
! easymecp: TDXMax=4.d-3
! easymecp: TDXRMS=2.5d-3
! easymecp: TGMax=7.d-4
! easymecp: TGRMS=5.d-4
%mem=6GB
%nproc=4
%chk=singlet.chk
#n B3LYP/6-31G** force guess(read)

First State

1 1
   6    0.00000000    1.29448256    0.00000000
   6    1.26876546    0.69492941    0.00000000
   6    1.25326473   -0.68664809    0.00000000
   6    0.00000000   -1.37715733    0.00000000
   6   -1.25326473   -0.68664809    0.00000000
   6   -1.26876546    0.69492941    0.00000000
   1    2.18932703    1.27148065    0.00000000
   1    2.18242230   -1.24876026    0.00000000
   1    0.00000000   -2.46295365    0.00000000
   1   -2.18242230   -1.24876026    0.00000000
   1   -2.18932703    1.27148065    0.00000000



