%mem=60GB
%nproc=16
%chk=T1.chk
#n B3LYP/6-31G** force guess(read)

Second State

1 3
   6    0.00000000    1.30123205    0.00000000
   6    1.25903842    0.69832975    0.00000000
   6    1.25579241   -0.68666312    0.00000000
   6    0.00000000   -1.38550971    0.00000000
   6   -1.25579241   -0.68666312    0.00000000
   6   -1.25903842    0.69832975    0.00000000
   1    2.17674035    1.27963007    0.00000000
   1    2.17992798   -1.25556296    0.00000000
   1    0.00000000   -2.47081497    0.00000000
   1   -2.17992798   -1.25556296    0.00000000
   1   -2.17674035    1.27963007    0.00000000

