%mem=60GB
%nproc=16
%chk=T1.chk
#n PBE1PBE/6-31G* force guess(read)

First State

0 3
   6    0.00000000   -1.17954696   -0.29530804
   6    0.00000000   -0.94595169    1.06422285
   6    0.00000000    0.94595169    1.06422285
   6    0.00000000    1.17954696   -0.29530804
   7    0.00000000    0.00000000   -1.03949305
   1    0.00000000    0.00000000   -2.04692730
   1    0.00000000   -2.10844294   -0.86575312
   1    0.00000000   -1.77698371    1.77713766
   1    0.00000000    1.77698371    1.77713766
   1    0.00000000    2.10844294   -0.86575312

