%mem=6GB
%nproc=4
%chk=singlet.chk
#n B3LYP/6-31G** force guess(read)

First State

1 1
   6    0.00000000    1.29400789    0.00000000
   6    1.26917553    0.69497453    0.00000000
   6    1.25327694   -0.68692447    0.00000000
   6    0.00000000   -1.37625003    0.00000000
   6   -1.25327694   -0.68692447    0.00000000
   6   -1.26917553    0.69497453    0.00000000
   1    2.18736140    1.27397585    0.00000000
   1    2.18156804   -1.25115210    0.00000000
   1    0.00000000   -2.46313047    0.00000000
   1   -2.18156804   -1.25115210    0.00000000
   1   -2.18736140    1.27397585    0.00000000




