%mem=6GB
%nproc=4
%chk=triplet.chk
#n B3LYP/6-31G** force guess(read)

Second State

1 3
   6    0.00000000    1.31191545    0.00000000
   6    1.26707924    0.71792080    0.00000000
   6    1.23657483   -0.67248612    0.00000000
   6    0.00000000   -1.41889059    0.00000000
   6   -1.23657483   -0.67248612    0.00000000
   6   -1.26707924    0.71792080    0.00000000
   1    2.16069725    1.24455232    0.00000000
   1    2.15221313   -1.23688931    0.00000000
   1    0.00000000   -2.48284523    0.00000000
   1   -2.15221313   -1.23688931    0.00000000
   1   -2.16069725    1.24455232    0.00000000




