%mem=6GB
%nproc=4
%chk=triplet.chk
#n B3LYP/6-31G** force guess(read)

Second State

1 3
   6    0.00000000    1.30325976    0.00000000
   6    1.26459219    0.69791270    0.00000000
   6    1.23681799   -0.67908417    0.00000000
   6    0.00000000   -1.38864101    0.00000000
   6   -1.23681799   -0.67908417    0.00000000
   6   -1.26459219    0.69791270    0.00000000
   1    2.18541158    1.26326453    0.00000000
   1    2.17323087   -1.24307619    0.00000000
   1    0.00000000   -2.47627749    0.00000000
   1   -2.17323087   -1.24307619    0.00000000
   1   -2.18541158    1.26326453    0.00000000




