%mem=6GB
%nproc=4
%chk=triplet.chk
#n B3LYP/6-31G** force guess(read)

Second State

1 3
   6    0.00000000    1.29599308    0.00000000
   6    1.26859383    0.69501674    0.00000000
   6    1.25241653   -0.68681702    0.00000000
   6    0.00000000   -1.37700643    0.00000000
   6   -1.25241653   -0.68681702    0.00000000
   6   -1.26859383    0.69501674    0.00000000
   1    2.18949490    1.27014535    0.00000000
   1    2.18168219   -1.24741104    0.00000000
   1    0.00000000   -2.46447972    0.00000000
   1   -2.18168219   -1.24741104    0.00000000
   1   -2.18949490    1.27014535    0.00000000




